<?xml version="1.0" encoding="UTF-8"?>

<!-- generated on 2023-12-20 13:41:20.223054 by osmWebWizard.py v1_19_0+0000-baa66a0f364
<configuration>
    <net-file value="C:\Users\theon\Sumo\2023-12-20-13-40-16\osm.net.xml.gz"/>
    <output-trip-file value="C:\Users\theon\Sumo\2023-12-20-13-40-16\osm.passenger.trips.xml"/>
    <route-file value="C:\Users\theon\Sumo\2023-12-20-13-40-16\osm.passenger.rou.xml"/>
    <prefix value="veh"/>
    <trip-attributes value="departLane=&quot;best&quot;"/>
    <fringe-start-attributes value="departSpeed=&quot;max&quot;"/>
    <vehicle-class value="passenger"/>
    <lanes value="True"/>
    <fringe-factor value="5"/>
    <allow-fringe.min-length value="1000.0"/>
    <via-edge-types value="highway.motorway,highway.motorway_link,highway.trunk_link,highway.primary_link,highway.secondary_link,highway.tertiary_link"/>
    <min-distance value="300.0"/>
    <min-distance.fringe value="10.0"/>
    <remove-loops value="True"/>
    <validate value="True"/>
    <insertion-density value="12.0"/>
</configuration>
-->

<!-- generated on 2023-12-20 13:41:11 by Eclipse SUMO duarouter Version 1.19.0
<configuration xmlns:xsi="http://www.w3.org/2001/XMLSchema-instance" xsi:noNamespaceSchemaLocation="http://sumo.dlr.de/xsd/duarouterConfiguration.xsd">

    <input>
        <net-file value="C:\Users\theon\Sumo\2023-12-20-13-40-16\osm.net.xml.gz"/>
        <route-files value="C:\Users\theon\Sumo\2023-12-20-13-40-16\osm.passenger.trips.xml"/>
    </input>

    <output>
        <output-file value="C:\Users\theon\Sumo\2023-12-20-13-40-16\osm.passenger.trips.xml.tmp"/>
        <alternatives-output value="NUL"/>
        <write-trips value="true"/>
    </output>

    <processing>
        <remove-loops value="true"/>
    </processing>

    <time>
        <begin value="0.0"/>
        <end value="3600.0"/>
    </time>

    <report>
        <no-warnings value="true"/>
        <ignore-errors value="true"/>
        <no-step-log value="true"/>
    </report>

</configuration>
-->

<routes xmlns:xsi="http://www.w3.org/2001/XMLSchema-instance" xsi:noNamespaceSchemaLocation="http://sumo.dlr.de/xsd/routes_file.xsd">
    <vType id="veh_passenger" vClass="passenger"/>
    <trip id="veh0" type="veh_passenger" depart="0.00" departLane="best" from="29120484#1" to="-149915061#0"/>
    <trip id="veh1" type="veh_passenger" depart="1.24" departLane="best" from="32608229" to="32073677"/>
    <trip id="veh2" type="veh_passenger" depart="2.48" departLane="best" from="31108337#7" to="31094329#1"/>
    <trip id="veh3" type="veh_passenger" depart="3.73" departLane="best" departSpeed="max" from="451210426#0" to="-27941741#0"/>
    <trip id="veh4" type="veh_passenger" depart="4.97" departLane="best" from="147487712#6" to="149915117#0"/>
    <trip id="veh5" type="veh_passenger" depart="6.21" departLane="best" departSpeed="max" from="-31317143#3" to="27994836#1"/>
    <trip id="veh6" type="veh_passenger" depart="7.45" departLane="best" from="-149915078#6" to="-31313920#1"/>
    <trip id="veh7" type="veh_passenger" depart="8.69" departLane="best" from="30183765#2" to="28554199"/>
    <trip id="veh8" type="veh_passenger" depart="9.93" departLane="best" from="-31855957#1" to="28851702#1"/>
    <trip id="veh9" type="veh_passenger" depart="11.18" departLane="best" from="32396245" to="-143217121#0"/>
    <trip id="veh10" type="veh_passenger" depart="12.42" departLane="best" departSpeed="max" from="32394899#0" to="31098052#3"/>
    <trip id="veh11" type="veh_passenger" depart="13.66" departLane="best" from="-479639292#5" to="30669553#1"/>
    <trip id="veh12" type="veh_passenger" depart="14.90" departLane="best" from="559428659#2" to="695585625"/>
    <trip id="veh13" type="veh_passenger" depart="16.14" departLane="best" from="-27942943#3" to="-28034144#1"/>
    <trip id="veh14" type="veh_passenger" depart="17.38" departLane="best" from="32814590#1" to="29119546"/>
    <trip id="veh15" type="veh_passenger" depart="18.63" departLane="best" from="32394899#5" to="31304175#0"/>
    <trip id="veh16" type="veh_passenger" depart="19.87" departLane="best" from="27942658" to="694756586#1"/>
    <trip id="veh17" type="veh_passenger" depart="21.11" departLane="best" from="-860992108#1" to="28698499#7"/>
    <trip id="veh18" type="veh_passenger" depart="22.35" departLane="best" from="-32603281#3" to="30183471"/>
    <trip id="veh19" type="veh_passenger" depart="23.59" departLane="best" from="32977468#1" to="28828157#1"/>
    <trip id="veh20" type="veh_passenger" depart="24.83" departLane="best" from="-31094329#6" to="-150230313#0"/>
    <trip id="veh21" type="veh_passenger" depart="26.08" departLane="best" from="-31856179#0" to="-358616305"/>
    <trip id="veh22" type="veh_passenger" depart="27.32" departLane="best" departSpeed="max" from="-231968164#3" to="-32394899#0"/>
    <trip id="veh23" type="veh_passenger" depart="28.56" departLane="best" from="28078439#0" to="32979935#0"/>
    <trip id="veh24" type="veh_passenger" depart="29.80" departLane="best" from="29119542#6" to="144185509#1"/>
    <trip id="veh25" type="veh_passenger" depart="31.04" departLane="best" from="694756586#1" to="31317144#1"/>
    <trip id="veh26" type="veh_passenger" depart="32.28" departLane="best" from="-32603281#7" to="528088636#0"/>
    <trip id="veh27" type="veh_passenger" depart="33.53" departLane="best" from="-30183473#0" to="147487687#0"/>
    <trip id="veh28" type="veh_passenger" depart="34.77" departLane="best" departSpeed="max" from="-30699789#4" to="31304171#1"/>
    <trip id="veh29" type="veh_passenger" depart="36.01" departLane="best" from="-30669553#1" to="147487710#3"/>
    <trip id="veh30" type="veh_passenger" depart="37.25" departLane="best" from="861335138" to="30436091#1"/>
    <trip id="veh31" type="veh_passenger" depart="38.49" departLane="best" from="-694756586#0" to="31095726#1"/>
    <trip id="veh32" type="veh_passenger" depart="39.73" departLane="best" from="-32608230#1" to="32081814#1"/>
    <trip id="veh33" type="veh_passenger" depart="40.98" departLane="best" departSpeed="max" from="-31856703" to="149915131#5"/>
    <trip id="veh34" type="veh_passenger" depart="42.22" departLane="best" from="-358615620#0" to="329732609#3"/>
    <trip id="veh35" type="veh_passenger" depart="43.46" departLane="best" from="-31314837#0" to="549306375#0"/>
    <trip id="veh36" type="veh_passenger" depart="44.70" departLane="best" departSpeed="max" from="33696261#0" to="-480305383#1"/>
    <trip id="veh37" type="veh_passenger" depart="45.94" departLane="best" from="30184024#2" to="149915117#0"/>
    <trip id="veh38" type="veh_passenger" depart="47.18" departLane="best" from="-478896723#3" to="175556654#4"/>
    <trip id="veh39" type="veh_passenger" depart="48.43" departLane="best" from="-32601657#1" to="32600853#4"/>
    <trip id="veh40" type="veh_passenger" depart="49.67" departLane="best" from="28277948#9" to="-32813503#1"/>
    <trip id="veh41" type="veh_passenger" depart="50.91" departLane="best" from="28556668#1" to="478364726"/>
    <trip id="veh42" type="veh_passenger" depart="52.15" departLane="best" from="-125293757#4" to="31858823#0"/>
    <trip id="veh43" type="veh_passenger" depart="53.39" departLane="best" from="-937899582" to="28078432#7"/>
    <trip id="veh44" type="veh_passenger" depart="54.64" departLane="best" from="-27942602" to="-150230422#0"/>
    <trip id="veh45" type="veh_passenger" depart="55.88" departLane="best" departSpeed="max" from="-28291544#3" to="30184026#1"/>
    <trip id="veh46" type="veh_passenger" depart="57.12" departLane="best" from="30435674#1" to="150259957"/>
    <trip id="veh47" type="veh_passenger" depart="58.36" departLane="best" departSpeed="max" from="-150520499#2" to="147487712#6"/>
    <trip id="veh48" type="veh_passenger" depart="59.60" departLane="best" from="933223754#2" to="28291757"/>
    <trip id="veh49" type="veh_passenger" depart="60.84" departLane="best" departSpeed="max" from="645752032#0" to="-32980574"/>
    <trip id="veh50" type="veh_passenger" depart="62.09" departLane="best" from="-147487686#2" to="31113564#2"/>
    <trip id="veh51" type="veh_passenger" depart="63.33" departLane="best" from="30698000#2" to="28549044#3"/>
    <trip id="veh52" type="veh_passenger" depart="64.57" departLane="best" from="-32603281#6" to="-30437598#3"/>
    <trip id="veh53" type="veh_passenger" depart="65.81" departLane="best" from="-28291751#4" to="150260992#1"/>
    <trip id="veh54" type="veh_passenger" depart="67.05" departLane="best" from="-150230422#1" to="559428663#0"/>
    <trip id="veh55" type="veh_passenger" depart="68.29" departLane="best" from="33696258" to="32965659#1"/>
    <trip id="veh56" type="veh_passenger" depart="69.54" departLane="best" from="20966896#8" to="-31095733#4"/>
    <trip id="veh57" type="veh_passenger" depart="70.78" departLane="best" from="478415866#1" to="34245115"/>
    <trip id="veh58" type="veh_passenger" depart="72.02" departLane="best" departSpeed="max" from="-32978603" to="30436090#2"/>
    <trip id="veh59" type="veh_passenger" depart="73.26" departLane="best" from="28826180#1" to="30438381#1"/>
    <trip id="veh60" type="veh_passenger" depart="74.50" departLane="best" from="-31313924#0" to="28549049#0"/>
    <trip id="veh61" type="veh_passenger" depart="75.74" departLane="best" from="-31856152#0" to="28292112"/>
    <trip id="veh62" type="veh_passenger" depart="76.99" departLane="best" from="-1064294956#1" to="559428663#0"/>
    <trip id="veh63" type="veh_passenger" depart="78.23" departLane="best" from="-147487810#1" to="480305388"/>
    <trip id="veh64" type="veh_passenger" depart="79.47" departLane="best" from="33914841#0" to="32813359#4"/>
    <trip id="veh65" type="veh_passenger" depart="80.71" departLane="best" from="-33696255#0" to="-150260992#1"/>
    <trip id="veh66" type="veh_passenger" depart="81.95" departLane="best" from="338156296#2" to="-549526200"/>
    <trip id="veh67" type="veh_passenger" depart="83.19" departLane="best" from="272740210" to="272608748#1"/>
    <trip id="veh68" type="veh_passenger" depart="84.44" departLane="best" from="175556654#5" to="31858823#11"/>
    <trip id="veh69" type="veh_passenger" depart="85.68" departLane="best" from="31314837#2" to="-28698505#1"/>
    <trip id="veh70" type="veh_passenger" depart="86.92" departLane="best" from="150260992#3" to="28556669#1"/>
    <trip id="veh71" type="veh_passenger" depart="88.16" departLane="best" from="32601657#2" to="34245117#1"/>
    <trip id="veh72" type="veh_passenger" depart="89.40" departLane="best" from="147487810#7" to="31855961#2"/>
    <trip id="veh73" type="veh_passenger" depart="90.64" departLane="best" from="-27942943#6" to="31304175#0"/>
    <trip id="veh74" type="veh_passenger" depart="91.89" departLane="best" from="31113566#1" to="-479639292#7"/>
    <trip id="veh75" type="veh_passenger" depart="93.13" departLane="best" from="-150145695#0" to="280929625#3"/>
    <trip id="veh76" type="veh_passenger" depart="94.37" departLane="best" from="-28549049#0" to="-32073902#3"/>
    <trip id="veh77" type="veh_passenger" depart="95.61" departLane="best" from="29111144" to="-150259958#3"/>
    <trip id="veh78" type="veh_passenger" depart="96.85" departLane="best" from="31857988" to="-31858823#12"/>
    <trip id="veh79" type="veh_passenger" depart="98.09" departLane="best" departSpeed="max" from="-175906636" to="30185348#1"/>
    <trip id="veh80" type="veh_passenger" depart="99.34" departLane="best" departSpeed="max" from="-31856703" to="478415867#2"/>
    <trip id="veh81" type="veh_passenger" depart="100.58" departLane="best" from="32976156#1" to="-20966902#0"/>
    <trip id="veh82" type="veh_passenger" depart="101.82" departLane="best" departSpeed="max" from="-32081809#1" to="-30701369#4"/>
    <trip id="veh83" type="veh_passenger" depart="103.06" departLane="best" from="-31315263#8" to="-28836997"/>
    <trip id="veh84" type="veh_passenger" depart="104.30" departLane="best" from="479852779#0" to="28710554#1"/>
    <trip id="veh85" type="veh_passenger" depart="105.55" departLane="best" from="150260984#3" to="32090294#4"/>
    <trip id="veh86" type="veh_passenger" depart="106.79" departLane="best" from="-32394902" to="-31110852#1"/>
    <trip id="veh87" type="veh_passenger" depart="108.03" departLane="best" from="-27994593#0" to="150260984#10"/>
    <trip id="veh89" type="veh_passenger" depart="110.51" departLane="best" departSpeed="max" from="31104461" to="31094326#11"/>
    <trip id="veh90" type="veh_passenger" depart="111.75" departLane="best" departSpeed="max" from="850565512#0" to="-28078432#4"/>
    <trip id="veh91" type="veh_passenger" depart="113.00" departLane="best" from="143683705" to="808404025#0"/>
    <trip id="veh92" type="veh_passenger" depart="114.24" departLane="best" from="32977468#1" to="32603281#2"/>
    <trip id="veh94" type="veh_passenger" depart="116.72" departLane="best" from="147487712#6" to="-32980576"/>
    <trip id="veh95" type="veh_passenger" depart="117.96" departLane="best" from="-32394901" to="479744610#0"/>
    <trip id="veh96" type="veh_passenger" depart="119.20" departLane="best" from="150224250#7" to="32980695#0"/>
    <trip id="veh97" type="veh_passenger" depart="120.45" departLane="best" from="280929620#2" to="150253016#5"/>
    <trip id="veh98" type="veh_passenger" depart="121.69" departLane="best" departSpeed="max" from="961878923" to="32965659#0"/>
    <trip id="veh99" type="veh_passenger" depart="122.93" departLane="best" from="623372708" to="479744616"/>
    <trip id="veh100" type="veh_passenger" depart="124.17" departLane="best" from="32814605#2" to="31094326#0"/>
    <trip id="veh101" type="veh_passenger" depart="125.41" departLane="best" from="-150519218#0" to="31856151#0"/>
    <trip id="veh102" type="veh_passenger" depart="126.65" departLane="best" from="140643756#0" to="150266403#1"/>
    <trip id="veh103" type="veh_passenger" depart="127.90" departLane="best" from="32601657#2" to="32090294#0"/>
    <trip id="veh104" type="veh_passenger" depart="129.14" departLane="best" from="150241929#2" to="-150259958#5"/>
    <trip id="veh105" type="veh_passenger" depart="130.38" departLane="best" from="559428659#2" to="-933223753#0"/>
    <trip id="veh106" type="veh_passenger" depart="131.62" departLane="best" from="280929628#0" to="31112749"/>
    <trip id="veh107" type="veh_passenger" depart="132.86" departLane="best" from="-30185351#3" to="474667393#0"/>
    <trip id="veh108" type="veh_passenger" depart="134.10" departLane="best" from="623372708" to="28828157#23"/>
    <trip id="veh109" type="veh_passenger" depart="135.35" departLane="best" from="27994457#0" to="31317144#0"/>
    <trip id="veh110" type="veh_passenger" depart="136.59" departLane="best" from="150260992#3" to="28831544#2"/>
    <trip id="veh111" type="veh_passenger" depart="137.83" departLane="best" departSpeed="max" from="20966902#0" to="32977471#0"/>
    <trip id="veh112" type="veh_passenger" depart="139.07" departLane="best" from="30435675#8" to="559817220#2"/>
    <trip id="veh113" type="veh_passenger" depart="140.31" departLane="best" from="-23440627#1" to="-31104467#1"/>
    <trip id="veh114" type="veh_passenger" depart="141.55" departLane="best" from="28699058#5" to="31094326#4"/>
    <trip id="veh115" type="veh_passenger" depart="142.80" departLane="best" from="-32073902#1" to="-28549367"/>
    <trip id="veh116" type="veh_passenger" depart="144.04" departLane="best" from="440984760#2" to="-32600853#2"/>
    <trip id="veh117" type="veh_passenger" depart="145.28" departLane="best" from="28699058#3" to="30183472#1"/>
    <trip id="veh118" type="veh_passenger" depart="146.52" departLane="best" departSpeed="max" from="147487710#0" to="28831544#0"/>
    <trip id="veh119" type="veh_passenger" depart="147.76" departLane="best" from="275176423#2" to="527842976#1"/>
    <trip id="veh120" type="veh_passenger" depart="149.00" departLane="best" from="-31304169#4" to="31112744#1"/>
    <trip id="veh121" type="veh_passenger" depart="150.25" departLane="best" departSpeed="max" from="-32081809#1" to="149915117#1"/>
    <trip id="veh122" type="veh_passenger" depart="151.49" departLane="best" from="-30438381#1" to="478364737#1"/>
    <trip id="veh123" type="veh_passenger" depart="152.73" departLane="best" from="358616305" to="31855961#7"/>
    <trip id="veh124" type="veh_passenger" depart="153.97" departLane="best" departSpeed="max" from="-188311573" to="175556654#3"/>
    <trip id="veh125" type="veh_passenger" depart="155.21" departLane="best" from="-938130569#3" to="-933223754#2"/>
    <trip id="veh126" type="veh_passenger" depart="156.46" departLane="best" from="-191676055#1" to="-31855961#8"/>
    <trip id="veh127" type="veh_passenger" depart="157.70" departLane="best" from="32601657#2" to="527575940#0"/>
    <trip id="veh128" type="veh_passenger" depart="158.94" departLane="best" from="358615620#2" to="377050568#0"/>
    <trip id="veh129" type="veh_passenger" depart="160.18" departLane="best" departSpeed="max" from="-690679322" to="30698000#1"/>
    <trip id="veh130" type="veh_passenger" depart="161.42" departLane="best" from="32604244#3" to="31104463#1"/>
    <trip id="veh131" type="veh_passenger" depart="162.66" departLane="best" from="28828157#23" to="861335135#5"/>
    <trip id="veh132" type="veh_passenger" depart="163.91" departLane="best" from="30184024#5" to="144443174#1"/>
    <trip id="veh133" type="veh_passenger" depart="165.15" departLane="best" from="32398509#0" to="-478364732#1"/>
    <trip id="veh134" type="veh_passenger" depart="166.39" departLane="best" from="30435675#6" to="528125806#2"/>
    <trip id="veh135" type="veh_passenger" depart="167.63" departLane="best" from="32396251" to="28548800#1"/>
    <trip id="veh136" type="veh_passenger" depart="168.87" departLane="best" from="-280929629#0" to="20966904"/>
    <trip id="veh137" type="veh_passenger" depart="170.11" departLane="best" from="-32604262#0" to="-29119548"/>
    <trip id="veh138" type="veh_passenger" depart="171.36" departLane="best" from="31095729#2" to="31315262"/>
    <trip id="veh139" type="veh_passenger" depart="172.60" departLane="best" from="29119540#2" to="32965664#1"/>
    <trip id="veh140" type="veh_passenger" depart="173.84" departLane="best" from="150520500#1" to="-478415867#3"/>
    <trip id="veh141" type="veh_passenger" depart="175.08" departLane="best" from="-32813359#2" to="27942943#4"/>
    <trip id="veh142" type="veh_passenger" depart="176.32" departLane="best" from="147488469#0" to="-32979933#4"/>
    <trip id="veh143" type="veh_passenger" depart="177.56" departLane="best" from="-1117202595#1" to="32073901#2"/>
    <trip id="veh144" type="veh_passenger" depart="178.81" departLane="best" from="29119547#3" to="-32813359#1"/>
    <trip id="veh145" type="veh_passenger" depart="180.05" departLane="best" from="-31112729#0" to="28698499#5"/>
    <trip id="veh146" type="veh_passenger" depart="181.29" departLane="best" from="149915052#0" to="-144552429#12"/>
    <trip id="veh147" type="veh_passenger" depart="182.53" departLane="best" from="-20966903#0" to="418565935#0"/>
    <trip id="veh149" type="veh_passenger" depart="185.01" departLane="best" from="-32604248#1" to="28830296#0"/>
    <trip id="veh150" type="veh_passenger" depart="186.26" departLane="best" from="30182208#2" to="28698501"/>
    <trip id="veh151" type="veh_passenger" depart="187.50" departLane="best" departSpeed="max" from="-33696255#2" to="478364737#1"/>
    <trip id="veh152" type="veh_passenger" depart="188.74" departLane="best" from="32090191" to="32979936"/>
    <trip id="veh153" type="veh_passenger" depart="189.98" departLane="best" from="475698353#0" to="-31855956#1"/>
    <trip id="veh154" type="veh_passenger" depart="191.22" departLane="best" from="32394899#4" to="-280929621#1"/>
    <trip id="veh155" type="veh_passenger" depart="192.46" departLane="best" from="31856178#1" to="418565936"/>
    <trip id="veh156" type="veh_passenger" depart="193.71" departLane="best" from="-144552428#1" to="30183473#1"/>
    <trip id="veh157" type="veh_passenger" depart="194.95" departLane="best" from="-30185351#2" to="481611609#1"/>
    <trip id="veh158" type="veh_passenger" depart="196.19" departLane="best" departSpeed="max" from="32977712#0" to="722455983"/>
    <trip id="veh159" type="veh_passenger" depart="197.43" departLane="best" from="-32396250#2" to="387880527#0"/>
    <trip id="veh160" type="veh_passenger" depart="198.67" departLane="best" departSpeed="max" from="-149915056#1" to="31313924#0"/>
    <trip id="veh161" type="veh_passenger" depart="199.91" departLane="best" from="-478415865#1" to="481611614"/>
    <trip id="veh162" type="veh_passenger" depart="201.16" departLane="best" from="-32393454#1" to="33630728"/>
    <trip id="veh163" type="veh_passenger" depart="202.40" departLane="best" from="32073676#4" to="-28291751#1"/>
    <trip id="veh164" type="veh_passenger" depart="203.64" departLane="best" departSpeed="max" from="32981236#0" to="32979933#6"/>
    <trip id="veh165" type="veh_passenger" depart="204.88" departLane="best" from="-31855961#5" to="32603285#1"/>
    <trip id="veh166" type="veh_passenger" depart="206.12" departLane="best" from="-150253023#1" to="478896723#0"/>
    <trip id="veh167" type="veh_passenger" depart="207.37" departLane="best" from="32090189#1" to="-32090191"/>
    <trip id="veh168" type="veh_passenger" depart="208.61" departLane="best" from="-149915056#0" to="31112753"/>
    <trip id="veh169" type="veh_passenger" depart="209.85" departLane="best" from="-478364732#1" to="33630731#1"/>
    <trip id="veh170" type="veh_passenger" depart="211.09" departLane="best" from="29255890#2" to="149915134"/>
    <trip id="veh171" type="veh_passenger" depart="212.33" departLane="best" from="-784818938" to="28548800#1"/>
    <trip id="veh172" type="veh_passenger" depart="213.57" departLane="best" from="481611613#0" to="-28548800#1"/>
    <trip id="veh173" type="veh_passenger" depart="214.82" departLane="best" from="-625272983" to="-31095733#4"/>
    <trip id="veh174" type="veh_passenger" depart="216.06" departLane="best" from="-559499868#1" to="329732598"/>
    <trip id="veh175" type="veh_passenger" depart="217.30" departLane="best" departSpeed="max" from="-28146976" to="150260992#0"/>
    <trip id="veh176" type="veh_passenger" depart="218.54" departLane="best" departSpeed="max" from="31104461" to="-479744612#0"/>
    <trip id="veh177" type="veh_passenger" depart="219.78" departLane="best" from="28710849" to="-280929619#0"/>
    <trip id="veh178" type="veh_passenger" depart="221.02" departLane="best" from="-933223754#1" to="28826180#2"/>
    <trip id="veh179" type="veh_passenger" depart="222.27" departLane="best" departSpeed="max" from="-32398491#2" to="31108337#4"/>
    <trip id="veh180" type="veh_passenger" depart="223.51" departLane="best" from="-1069213936#1" to="479744616"/>
    <trip id="veh181" type="veh_passenger" depart="224.75" departLane="best" from="-27942943#4" to="31112754#4"/>
    <trip id="veh182" type="veh_passenger" depart="225.99" departLane="best" from="-31112744#0" to="30881873#2"/>
    <trip id="veh183" type="veh_passenger" depart="227.23" departLane="best" departSpeed="max" from="-587832029#1" to="-20966902#0"/>
    <trip id="veh184" type="veh_passenger" depart="228.47" departLane="best" from="30435677#0" to="-560035435#0"/>
    <trip id="veh185" type="veh_passenger" depart="229.72" departLane="best" departSpeed="max" from="-34245117#1" to="32976157"/>
    <trip id="veh186" type="veh_passenger" depart="230.96" departLane="best" from="31095731#4" to="-478364742#2"/>
    <trip id="veh187" type="veh_passenger" depart="232.20" departLane="best" from="-338156296#0" to="150224294"/>
    <trip id="veh188" type="veh_passenger" depart="233.44" departLane="best" from="-143683705" to="-451210410"/>
    <trip id="veh189" type="veh_passenger" depart="234.68" departLane="best" departSpeed="max" from="-28556669#1" to="150256349#1"/>
    <trip id="veh190" type="veh_passenger" depart="235.92" departLane="best" from="-498558125#1" to="31094329#10"/>
    <trip id="veh192" type="veh_passenger" depart="238.41" departLane="best" from="-32979933#7" to="-28556664#0"/>
    <trip id="veh193" type="veh_passenger" depart="239.65" departLane="best" from="-1064294956#0" to="33914841#0"/>
    <trip id="veh194" type="veh_passenger" depart="240.89" departLane="best" from="-149915078#5" to="28828157#30"/>
    <trip id="veh195" type="veh_passenger" depart="242.13" departLane="best" from="30184026#1" to="188311573"/>
    <trip id="veh196" type="veh_passenger" depart="243.37" departLane="best" from="150224250#2" to="31856151#0"/>
    <trip id="veh197" type="veh_passenger" depart="244.62" departLane="best" from="150260984#5" to="478415849#0"/>
    <trip id="veh198" type="veh_passenger" depart="245.86" departLane="best" from="32090191" to="31094326#8"/>
    <trip id="veh199" type="veh_passenger" depart="247.10" departLane="best" from="-267341170#2" to="280929622#3"/>
    <trip id="veh200" type="veh_passenger" depart="248.34" departLane="best" from="29116588#6" to="684901115#0"/>
    <trip id="veh201" type="veh_passenger" depart="249.58" departLane="best" from="32398517#1" to="31855961#3"/>
    <trip id="veh202" type="veh_passenger" depart="250.82" departLane="best" from="30438387#0" to="-32073902#3"/>
    <trip id="veh203" type="veh_passenger" depart="252.07" departLane="best" from="-31112729#1" to="-149915018#6"/>
    <trip id="veh204" type="veh_passenger" depart="253.31" departLane="best" from="-32090208#0" to="231968164#3"/>
    <trip id="veh205" type="veh_passenger" depart="254.55" departLane="best" from="-32965664#0" to="-20966902#3"/>
    <trip id="veh206" type="veh_passenger" depart="255.79" departLane="best" from="147487690#0" to="30184029#0"/>
    <trip id="veh207" type="veh_passenger" depart="257.03" departLane="best" from="-31104463#4" to="31095733#4"/>
    <trip id="veh208" type="veh_passenger" depart="258.28" departLane="best" from="20966921#1" to="-32600851#0"/>
    <trip id="veh209" type="veh_passenger" depart="259.52" departLane="best" from="30184026#8" to="125293757#4"/>
    <trip id="veh210" type="veh_passenger" depart="260.76" departLane="best" from="31304166#3" to="32073899#1"/>
    <trip id="veh212" type="veh_passenger" depart="263.24" departLane="best" from="-31094326#11" to="559499868#0"/>
    <trip id="veh213" type="veh_passenger" depart="264.48" departLane="best" from="267341163" to="150253016#2"/>
    <trip id="veh214" type="veh_passenger" depart="265.73" departLane="best" from="32394899#3" to="32976157"/>
    <trip id="veh215" type="veh_passenger" depart="266.97" departLane="best" from="150241957" to="32398511#1"/>
    <trip id="veh216" type="veh_passenger" depart="268.21" departLane="best" from="30437379#1" to="861335135#8"/>
    <trip id="veh217" type="veh_passenger" depart="269.45" departLane="best" from="-28699060#0" to="559428651#1"/>
    <trip id="veh218" type="veh_passenger" depart="270.69" departLane="best" from="-451171678#0" to="30182207#3"/>
    <trip id="veh219" type="veh_passenger" depart="271.93" departLane="best" from="31095731#1" to="-27994592"/>
    <trip id="veh220" type="veh_passenger" depart="273.18" departLane="best" from="32603281#9" to="28556664#0"/>
    <trip id="veh221" type="veh_passenger" depart="274.42" departLane="best" from="474711284#0" to="31315945"/>
    <trip id="veh222" type="veh_passenger" depart="275.66" departLane="best" from="-150260992#0" to="-32608230#0"/>
    <trip id="veh223" type="veh_passenger" depart="276.90" departLane="best" from="-32090294#2" to="-31098499#4"/>
    <trip id="veh224" type="veh_passenger" depart="278.14" departLane="best" from="31314837#2" to="28277852#2"/>
    <trip id="veh226" type="veh_passenger" depart="280.63" departLane="best" from="-216935642#0" to="-338156296#0"/>
    <trip id="veh227" type="veh_passenger" depart="281.87" departLane="best" from="-32604256#5" to="549310692"/>
    <trip id="veh228" type="veh_passenger" depart="283.11" departLane="best" from="-27993920#0" to="-29119548"/>
    <trip id="veh229" type="veh_passenger" depart="284.35" departLane="best" from="-31858823#12" to="31095731#5"/>
    <trip id="veh230" type="veh_passenger" depart="285.59" departLane="best" from="31095717#1" to="-175556654#0"/>
    <trip id="veh231" type="veh_passenger" depart="286.83" departLane="best" from="144552429#12" to="28549375"/>
    <trip id="veh232" type="veh_passenger" depart="288.08" departLane="best" from="-147487707#0" to="31315947#1"/>
    <trip id="veh233" type="veh_passenger" depart="289.32" departLane="best" from="147487710#5" to="-478415866#0"/>
    <trip id="veh234" type="veh_passenger" depart="290.56" departLane="best" from="-28556664#1" to="31095733#0"/>
    <trip id="veh235" type="veh_passenger" depart="291.80" departLane="best" from="329735612#1" to="318952292"/>
    <trip id="veh236" type="veh_passenger" depart="293.04" departLane="best" departSpeed="max" from="-862068007" to="125293757#5"/>
    <trip id="veh237" type="veh_passenger" depart="294.28" departLane="best" from="549526200" to="31856151#1"/>
    <trip id="veh238" type="veh_passenger" depart="295.53" departLane="best" from="-329732598" to="559428662#0"/>
    <trip id="veh239" type="veh_passenger" depart="296.77" departLane="best" departSpeed="max" from="147487710#0" to="31317143#3"/>
    <trip id="veh240" type="veh_passenger" depart="298.01" departLane="best" from="28078432#10" to="29119542#7"/>
    <trip id="veh241" type="veh_passenger" depart="299.25" departLane="best" from="-31855957#1" to="31858823#0"/>
    <trip id="veh242" type="veh_passenger" depart="300.49" departLane="best" from="-149915131#10" to="-149915098#2"/>
    <trip id="veh243" type="veh_passenger" depart="301.73" departLane="best" from="-478896730#5" to="31094329#9"/>
    <trip id="veh244" type="veh_passenger" depart="302.98" departLane="best" from="150260982#10" to="28698504"/>
    <trip id="veh245" type="veh_passenger" depart="304.22" departLane="best" from="28851705#0" to="-149915094#0"/>